converters/autotest/IEEE-123.glm
////////////////////////////////////////////////////////
// BEGIN
////////////////////////////////////////////////////////
// filename... /tmp/IEEE-123.glm
// workdir.... /Users/dchassin/github/gridlabd-models/ieee123
// command.... /opt/gridlabd/opt/gridlabd/4.2.20-210424-develop_add_converter_html/bin/gridlabd.bin -C model/ieee123.glm -o /tmp/IEEE-123.glm
// created.... Sat Apr 24 16:24:42 2021
// user....... dchassin
// host....... (null)
// modules.... 4
// classes.... 82
// objects.... 326
// options.... MINIMAL

////////////////////////////////////////////////////////

// CLOCK
clock {
	timezone "PST8PDT";
	starttime "2018-03-01 00:00:00 PST";
	stoptime "2018-03-03 04:15:00 PST";
}

////////////////////////////////////////////////////////
// modules
module climate {
	message_flags "DEBUG|VERBOSE";
}
module powerflow {
	message_flags "DEBUG|VERBOSE";
	show_matrix_values "FALSE";
	primary_voltage_ratio "+60";
	nominal_frequency "+60";
	require_voltage_control "FALSE";
	geographic_degree "+0";
	fault_impedance "+1e-06+0j";
	ground_impedance "+1e-06+0j";
	warning_underfrequency "+55";
	warning_overfrequency "+65";
	warning_undervoltage "+0.8";
	warning_overvoltage "+1.2";
	warning_voltageangle "+2";
	maximum_voltage_error "+1e-06";
	solver_method "NR";
	NR_matrix_file "";
	NR_matrix_output_interval "NEVER";
	NR_matrix_output_references "FALSE";
	line_capacitance "TRUE";
	line_limits "TRUE";
	lu_solver "";
	NR_iteration_limit "500";
	NR_deltamode_iteration_limit "10";
	NR_superLU_procs "1";
	default_maximum_voltage_error "+1e-06";
	default_maximum_power_error "+0.0001";
	NR_admit_change "TRUE";
	enable_subsecond_models "FALSE";
	all_powerflow_delta "FALSE";
	deltamode_timestep "+1e+07 ns";
	current_frequency "+60 Hz";
	master_frequency_update "FALSE";
	enable_frequency_dependence "FALSE";
	default_resistance "+0.0001";
	enable_inrush "FALSE";
	low_voltage_impedance_level "+0.7";
	enable_mesh_fault_current "FALSE";
	convergence_error_handling "IGNORE";
	solver_profile_enable "TRUE";
	solver_profile_filename "solver_nr_profile.csv";
	solver_profile_headers_included "TRUE";
	solver_headers "timestamp,duration[microsec],iteration,bus_count,branch_count,error";
	solver_py_config "/opt/gridlabd/var/gridlabd/solver_py.conf";
	solver_dump_enable "FALSE";
	violation_record "";
	violation_count "0";
	violation_active "0";
	violation_watchset "ALL";
	market_price_name "current_market.clearing_price";
	repair_time "+24 h";
	climate_impact_zone "NONE";
}
module generators {
	message_flags "DEBUG|VERBOSE";
	enable_subsecond_models "FALSE";
	deltamode_timestep "+1e+07 ns";
}
module residential {
	message_flags "DEBUG|VERBOSE";
	default_line_voltage "+240+0d V";
	default_line_current "+0+0j A";
	default_outdoor_temperature "+74 degF";
	default_humidity "+75 %";
	default_solar "+0 Btu/sf";
	default_etp_iterations "100";
	ANSI_voltage_check "TRUE";
	enable_subsecond_models "FALSE";
	deltamode_timestep "+1e+07 ns";
	all_house_delta "FALSE";
	implicit_enduses "DRYER|CLOTHESWASHER|WATERHEATER|RANGE|REFRIGERATOR|FREEZER|MICROWAVE|DISHWASHER|PLUGS|LIGHTS";
	implicit_enduse_source "ELCAP1990";
	house_low_temperature_warning "+55 degF";
	house_high_temperature_warning "+95 degF";
	thermostat_control_warning "+4.94066e-324";
	system_dwell_time "+1 s";
	aux_cutin_temperature "+10 degF";
	paneldump_filename "paneldump.csv";
	paneldump_interval "0";
	paneldump_resolution "+0";
}

////////////////////////////////////////////////////////
// classes
class solar {
	set phases;
}
// schedules

////////////////////////////////////////////////////////
// objects
object climate.climate {
	name "weather";
	latitude "35N25:60.00";
	longitude "119W2:60.00";
	guid "491F7FAB7E632B4F4FBE6105488DAD34";
	solar_elevation "-1.10224 rad";
	solar_azimuth "+0.867987 rad";
	solar_zenith "+2.67304 rad";
	tmyfile "IEEE-123.tmy3";
	temperature "+43.882 degF";
	humidity "+0.74 pu";
	extraterrestrial_direct_normal "+0 W/sf";
	pressure "+999 mbar";
	wind_speed "+1.2 m/s";
	wind_dir "+80 rad";
	record.low "+30.922 degF";
	record.high "+107.962 degF";
	record.solar "+95.2906 W/sf";
	rainfall "+0.59055 in/h";
	interpolate "QUADRATIC";
	heat_index "+42.6651 degF";
}
object powerflow.overhead_line_conductor {
	name "olc301c";
	guid "7EF63361B99E8EA0514F667940DD6A19";
	geometric_mean_radius "+0.0244 ft";
	resistance "+0.306 Ohm/mile";
	diameter "+0.721 in";
}
object powerflow.overhead_line_conductor {
	name "olc301n";
	guid "20864657BE192D4F7744BFE241F644EF";
	geometric_mean_radius "+0.00814 ft";
	resistance "+0.592 Ohm/mile";
	diameter "+0.563 in";
}
object powerflow.overhead_line_conductor {
	name "olc309";
	guid "37775A92D923AA1C32AB6CB240C09715";
	geometric_mean_radius "+0.00446 ft";
	resistance "+1.12 Ohm/mile";
	diameter "+0.398 in";
}
object powerflow.underground_line_conductor {
	name "ulc312";
	guid "107376A587F805845C156AFF5AA71A69";
	outer_diameter "+1.06 in";
	conductor_gmr "+0.0111 ft";
	conductor_diameter "+0.368 in";
	conductor_resistance "+0.97 Ohm/mile";
	neutral_gmr "+0.00208 ft";
	neutral_diameter "+0.0640837 in";
	neutral_resistance "+14.8722 Ohm/mile";
	neutral_strands "16";
}
object powerflow.line_spacing {
	name "ls500301";
	guid "24EB6F344FAB46837EAE288770F7B7B8";
	distance_AB "+2.5 ft";
	distance_BC "+4.5 ft";
	distance_AC "+7 ft";
	distance_AN "+5.65685 ft";
	distance_BN "+4.272 ft";
	distance_CN "+5 ft";
	distance_AE "+28 ft";
	distance_BE "+28 ft";
	distance_CE "+28 ft";
	distance_NE "+24 ft";
}
object powerflow.line_spacing {
	name "ls500302";
	guid "412DFA5F6CDA1ACE3BB812D249177661";
	distance_AB "+4.5 ft";
	distance_BC "+7 ft";
	distance_AC "+2.5 ft";
	distance_AN "+4.272 ft";
	distance_BN "+5 ft";
	distance_CN "+5.65685 ft";
	distance_AE "+28 ft";
	distance_BE "+28 ft";
	distance_CE "+28 ft";
	distance_NE "+24 ft";
}
object powerflow.line_spacing {
	name "ls500303";
	guid "5B7BA46316F8615756372BCCF8312BCE";
	distance_AB "+7 ft";
	distance_BC "+2.5 ft";
	distance_AC "+4.5 ft";
	distance_AN "+5 ft";
	distance_BN "+5.65685 ft";
	distance_CN "+4.272 ft";
	distance_AE "+28 ft";
	distance_BE "+28 ft";
	distance_CE "+28 ft";
	distance_NE "+24 ft";
}
object powerflow.line_spacing {
	name "ls500304";
	guid "52F73122D9506B8A7EAC80499C276D";
	distance_AB "+4.5 ft";
	distance_BC "+2.5 ft";
	distance_AC "+7 ft";
	distance_AN "+5 ft";
	distance_BN "+4.272 ft";
	distance_CN "+5.65685 ft";
	distance_AE "+28 ft";
	distance_BE "+28 ft";
	distance_CE "+28 ft";
	distance_NE "+24 ft";
}
object powerflow.line_spacing {
	name "ls500305";
	guid "3F0329EE0D615C3E7F62435E76CCC182";
	distance_AB "+2.5 ft";
	distance_BC "+7 ft";
	distance_AC "+4.5 ft";
	distance_AN "+4.272 ft";
	distance_BN "+5.65685 ft";
	distance_CN "+5 ft";
	distance_AE "+28 ft";
	distance_BE "+28 ft";
	distance_CE "+28 ft";
	distance_NE "+24 ft";
}
object powerflow.line_spacing {
	name "ls500306";
	guid "19FB6B23C944322D20E25F90EFF9BC11";
	distance_AB "+2.5 ft";
	distance_BC "+4.5 ft";
	distance_AC "+7 ft";
	distance_AN "+5.65685 ft";
	distance_BN "+4.272 ft";
	distance_CN "+5 ft";
	distance_AE "+28 ft";
	distance_BE "+28 ft";
	distance_CE "+28 ft";
	distance_NE "+24 ft";
}
object powerflow.line_spacing {
	name "ls505307";
	guid "63EE791B9D3D626D5DE33EE11C52BFFB";
	distance_AC "+7 ft";
	distance_AN "+5.65685 ft";
	distance_CN "+5 ft";
	distance_AE "+28 ft";
	distance_CE "+28 ft";
	distance_NE "+24 ft";
}
object powerflow.line_spacing {
	name "ls505308";
	guid "5C2137E84362EEF148E917ACE0DD17C5";
	distance_AB "+7 ft";
	distance_AN "+5.65685 ft";
	distance_BN "+5 ft";
	distance_AE "+28 ft";
	distance_BE "+28 ft";
	distance_NE "+24 ft";
}
object powerflow.line_spacing {
	name "ls510309";
	guid "221B5563EC6AA24F2568BC7164ED6398";
	distance_AN "+5.02494 ft";
	distance_AE "+28 ft";
	distance_NE "+24 ft";
}
object powerflow.line_spacing {
	name "ls510310";
	guid "70F7490B1C9BCB1C2D857A5FF35175C2";
	distance_BN "+5.02494 ft";
	distance_BE "+28 ft";
	distance_NE "+24 ft";
}
object powerflow.line_spacing {
	name "ls510311";
	guid "39BD413313CDBCB625FAB87DFEF60C56";
	distance_CN "+5.02494 ft";
	distance_CE "+28 ft";
	distance_NE "+24 ft";
}
object powerflow.line_spacing {
	name "ls515312";
	guid "2389A8FD83A79F7669EC00DC3A50ED0B";
	distance_AB "+0.5 ft";
	distance_BC "+0.5 ft";
	distance_AC "+1 ft";
}
object powerflow.line_configuration {
	name "lc301";
	guid "6A3426AADEDB8F1F125BA16B5860D4E7";
	conductor_A "olc301c";
	conductor_B "olc301c";
	conductor_C "olc301c";
	conductor_N "olc301n";
	spacing "ls500301";
}
object powerflow.line_configuration {
	name "lc302";
	guid "364805BCD48FF8214704F5B97641B566";
	conductor_A "olc301c";
	conductor_B "olc301c";
	conductor_C "olc301c";
	conductor_N "olc301n";
	spacing "ls500302";
}
object powerflow.line_configuration {
	name "lc303";
	guid "5AF7F45F930019D02067AF6D545FB062";
	conductor_A "olc301c";
	conductor_B "olc301c";
	conductor_C "olc301c";
	conductor_N "olc301n";
	spacing "ls500303";
}
object powerflow.line_configuration {
	name "lc304";
	guid "68E5CFA4341D86814CB816B06E6A170A";
	conductor_A "olc301c";
	conductor_B "olc301c";
	conductor_C "olc301c";
	conductor_N "olc301n";
	spacing "ls500304";
}
object powerflow.line_configuration {
	name "lc305";
	guid "366CEE193F4A937B63754038A8B675D0";
	conductor_A "olc301c";
	conductor_B "olc301c";
	conductor_C "olc301c";
	conductor_N "olc301n";
	spacing "ls500305";
}
object powerflow.line_configuration {
	name "lc306";
	guid "6035EC1D7367D74C7D629A5FB27B0ED9";
	conductor_A "olc301c";
	conductor_B "olc301c";
	conductor_C "olc301c";
	conductor_N "olc301n";
	spacing "ls500306";
}
object powerflow.line_configuration {
	name "lc307";
	guid "56CD719513B96B3A40B5F6C363622883";
	conductor_A "olc301c";
	conductor_C "olc301c";
	conductor_N "olc301n";
	spacing "ls505307";
}
object powerflow.line_configuration {
	name "lc308";
	guid "500DBC66BB4070D21B215A07440C24F6";
	conductor_A "olc301c";
	conductor_B "olc301c";
	conductor_N "olc301n";
	spacing "ls505308";
}
object powerflow.line_configuration {
	name "lc309";
	guid "6503EF4440DD36F35D915F0A17FBA05F";
	conductor_A "olc309";
	conductor_N "olc309";
	spacing "ls510309";
}
object powerflow.line_configuration {
	name "lc310";
	guid "472538527FD7A16C5742DF4CA826BAD6";
	conductor_B "olc309";
	conductor_N "olc309";
	spacing "ls510310";
}
object powerflow.line_configuration {
	name "lc311";
	guid "498CD70DDF4DB1DC680ED5CB35461F23";
	conductor_C "olc309";
	conductor_N "olc309";
	spacing "ls510311";
}
object powerflow.line_configuration {
	name "lc312";
	guid "7CF7DD093C0D39C64B9A15FAE0A862E8";
	conductor_A "ulc312";
	conductor_B "ulc312";
	conductor_C "ulc312";
	spacing "ls515312";
}
object powerflow.transformer_configuration {
	name "tc500";
	guid "4F5739075F2FB7ED192B744C02B3958F";
	connect_type "DELTA_DELTA";
	install_type "PADMOUNT";
	primary_voltage "+4160 V";
	secondary_voltage "+480 V";
	power_rating "+150 kVA";
	powerA_rating "+50 kVA";
	powerB_rating "+50 kVA";
	powerC_rating "+50 kVA";
	resistance "+0.0127 pu*Ohm";
	reactance "+0.0272 pu*Ohm";
	impedance "+0.0127+0.0272j pu*Ohm";
	reactance_resistance_ratio "+4.5";
}
object powerflow.transformer_configuration {
	name "tc9999";
	guid "19F2FC4751E26F71DE861C1CDECE2AF";
	connect_type "DELTA_GWYE";
	install_type "PADMOUNT";
	primary_voltage "+115 V";
	secondary_voltage "+4160 V";
	power_rating "+5000 kVA";
	powerA_rating "+1666.67 kVA";
	powerB_rating "+1666.67 kVA";
	powerC_rating "+1666.67 kVA";
	resistance "+0.01 pu*Ohm";
	reactance "+0.08 pu*Ohm";
	impedance "+0.01+0.08j pu*Ohm";
	reactance_resistance_ratio "+4.5";
}
object powerflow.regulator_configuration {
	name "rc501";
	guid "58A4DA3CFF9EBCDB513FC012C5D9565D";
	connect_type "WYE_WYE";
	band_center "+2400 V";
	band_width "+40 V";
	time_delay "+30 s";
	raise_taps "16";
	lower_taps "16";
	current_transducer_ratio "+700 pu";
	power_transducer_ratio "+20 pu";
	compensator_r_setting_A "+3 V";
	compensator_x_setting_A "+7.5 V";
	CT_phase "A";
	PT_phase "A";
	regulation "+0.1 %";
	Control "OUTPUT_VOLTAGE";
	Type "A";
	tap_pos_A "0";
	tap_pos_B "0";
	tap_pos_C "0";
}
object powerflow.regulator_configuration {
	name "rc502";
	guid "2FBB949285FED2ED2D35D7EE782F232D";
	connect_type "WYE_WYE";
	band_center "+2400 V";
	band_width "+40 V";
	time_delay "+30 s";
	raise_taps "16";
	lower_taps "16";
	current_transducer_ratio "+50 pu";
	power_transducer_ratio "+20 pu";
	compensator_r_setting_A "+0.4 V";
	compensator_x_setting_A "+0.4 V";
	CT_phase "A";
	PT_phase "A";
	regulation "+0.1 %";
	Control "OUTPUT_VOLTAGE";
	Type "A";
	tap_pos_A "-1";
	tap_pos_B "0";
	tap_pos_C "0";
}
object powerflow.regulator_configuration {
	name "rc503";
	guid "5E77D71CE5685AA2E5DDEAD8FF2FDB3";
	connect_type "WYE_WYE";
	band_center "+2400 V";
	band_width "+20 V";
	time_delay "+30 s";
	raise_taps "16";
	lower_taps "16";
	current_transducer_ratio "+50 pu";
	power_transducer_ratio "+20 pu";
	compensator_r_setting_A "+0.4 V";
	compensator_r_setting_C "+0.4 V";
	compensator_x_setting_A "+0.4 V";
	compensator_x_setting_C "+0.4 V";
	CT_phase "CA";
	PT_phase "CA";
	regulation "+0.1 %";
	Control "OUTPUT_VOLTAGE";
	Type "A";
	tap_pos_A "0";
	tap_pos_B "0";
	tap_pos_C "-1";
}
object powerflow.regulator_configuration {
	name "rc504";
	guid "404A3916B2F5B8DC29355D39C10434A8";
	connect_type "WYE_WYE";
	band_center "+2400 V";
	band_width "+40 V";
	time_delay "+30 s";
	raise_taps "16";
	lower_taps "16";
	current_transducer_ratio "+300 pu";
	power_transducer_ratio "+20 pu";
	compensator_r_setting_A "+0.6 V";
	compensator_r_setting_B "+1.4 V";
	compensator_r_setting_C "+0.2 V";
	compensator_x_setting_A "+1.3 V";
	compensator_x_setting_B "+2.6 V";
	compensator_x_setting_C "+1.4 V";
	regulation "+0.1 %";
	Control "OUTPUT_VOLTAGE";
	Type "A";
	tap_pos_A "8";
	tap_pos_B "1";
	tap_pos_C "5";
}
object powerflow.node {
	name "node_3";
	groupid "nodevolts";
	latitude "35N23:4.56";
	longitude "119W0:7.92";
	guid "2EA41FD6AF04B6A07CB10D6933659F35";
	maximum_voltage_error "+0.00240178 V";
	voltage_C "+2401.78+120d V";
	frequency_measure_type "NONE";
	sfm_Tf "+0.01 s";
	pll_Kp "+10 pu";
	pll_Ki "+100 pu";
	measured_frequency_A "+60 Hz";
	measured_frequency_B "+60 Hz";
	measured_frequency_C "+60 Hz";
	measured_frequency "+60 Hz";
	service_status "IN_SERVICE";
	service_status_double "-1";
	previous_uptime "-1 min";
	current_uptime "-1 min";
	GFA_freq_low_trip "+59.5 Hz";
	GFA_freq_high_trip "+60.5 Hz";
	GFA_volt_low_trip "+0.8 pu";
	GFA_volt_high_trip "+1.2 pu";
	GFA_reconnect_time "+300 s";
	GFA_freq_disconnect_time "+0.2 s";
	GFA_volt_disconnect_time "+0.2 s";
	GFA_status "TRUE";
	// class.parent = powerflow.powerflow_object
	phases "CN";
	nominal_voltage "+2401.78 V";
}
object powerflow.node {
	name "node_8";
	groupid "nodevolts";
	latitude "35N23:7.02";
	longitude "119W0:1.86";
	guid "608FD3490512FCF773A6677CFD0137A7";
	maximum_voltage_error "+0.00240178 V";
	voltage_A "+2401.78+0d V";
	voltage_B "+2401.78-120d V";
	voltage_C "+2401.78+120d V";
	frequency_measure_type "NONE";
	sfm_Tf "+0.01 s";
	pll_Kp "+10 pu";
	pll_Ki "+100 pu";
	measured_frequency_A "+60 Hz";
	measured_frequency_B "+60 Hz";
	measured_frequency_C "+60 Hz";
	measured_frequency "+60 Hz";
	service_status "IN_SERVICE";
	service_status_double "-1";
	previous_uptime "-1 min";
	current_uptime "-1 min";
	GFA_freq_low_trip "+59.5 Hz";
	GFA_freq_high_trip "+60.5 Hz";
	GFA_volt_low_trip "+0.8 pu";
	GFA_volt_high_trip "+1.2 pu";
	GFA_reconnect_time "+300 s";
	GFA_freq_disconnect_time "+0.2 s";
	GFA_volt_disconnect_time "+0.2 s";
	GFA_status "TRUE";
	// class.parent = powerflow.powerflow_object
	phases "ABCN";
	nominal_voltage "+2401.78 V";
}
object powerflow.node {
	name "node_13";
	groupid "nodevolts";
	latitude "35N23:7.02";
	longitude "118W59:58.26";
	guid "C52E9DBEAF286B760E31D1BE14095D6";
	maximum_voltage_error "+0.00240178 V";
	voltage_A "+2401.78+0d V";
	voltage_B "+2401.78-120d V";
	voltage_C "+2401.78+120d V";
	frequency_measure_type "NONE";
	sfm_Tf "+0.01 s";
	pll_Kp "+10 pu";
	pll_Ki "+100 pu";
	measured_frequency_A "+60 Hz";
	measured_frequency_B "+60 Hz";
	measured_frequency_C "+60 Hz";
	measured_frequency "+60 Hz";
	service_status "IN_SERVICE";
	service_status_double "-1";
	previous_uptime "-1 min";
	current_uptime "-1 min";
	GFA_freq_low_trip "+59.5 Hz";
	GFA_freq_high_trip "+60.5 Hz";
	GFA_volt_low_trip "+0.8 pu";
	GFA_volt_high_trip "+1.2 pu";
	GFA_reconnect_time "+300 s";
	GFA_freq_disconnect_time "+0.2 s";
	GFA_volt_disconnect_time "+0.2 s";
	GFA_status "TRUE";
	// class.parent = powerflow.powerflow_object
	phases "ABCN";
	nominal_voltage "+2401.78 V";
}
object powerflow.substation {
	name "node_14";
	groupid "nodevolts";
	latitude "35N23:13.44";
	longitude "119W0:1.86";
	guid "29EEF4316DA20FC32BAE2375F517B5FB";
	base_power "+100 VA";
	power_convergence_value "+1 VA";
	distribution_voltage_A "+2401.78+0d V";
	// class.parent = powerflow.node
	bustype "SWING";
	maximum_voltage_error "+0.00240178 V";
	voltage_A "+2401.78+0d V";
	frequency_measure_type "NONE";
	sfm_Tf "+0.01 s";
	pll_Kp "+10 pu";
	pll_Ki "+100 pu";
	measured_frequency_A "+60 Hz";
	measured_frequency_B "+60 Hz";
	measured_frequency_C "+60 Hz";
	measured_frequency "+60 Hz";
	service_status "IN_SERVICE";
	service_status_double "-1";
	previous_uptime "-1 min";
	current_uptime "-1 min";
	GFA_freq_low_trip "+59.5 Hz";
	GFA_freq_high_trip "+60.5 Hz";
	GFA_volt_low_trip "+0.8 pu";
	GFA_volt_high_trip "+1.2 pu";
	GFA_reconnect_time "+300 s";
	GFA_freq_disconnect_time "+0.2 s";
	GFA_volt_disconnect_time "+0.2 s";
	GFA_status "TRUE";
	// class.parent = powerflow.powerflow_object
	phases "AN";
	nominal_voltage "+2401.78 V";
}
object powerflow.meter {
	parent "node_14";
	name "substation_meter";
	groupid "nodevolts";
	latitude "35N23:13.44";
	longitude "119W0:1.86";
	guid "773A93D4C85E80421C71B1DAEEB86DCE";
	measured_energy_delta_timestep "-1 s";
	// class.parent = powerflow.node
	maximum_voltage_error "+0.00240178 V";
	voltage_A "+2401.78+0d V";
	frequency_measure_type "NONE";
	sfm_Tf "+0.01 s";
	pll_Kp "+10 pu";
	pll_Ki "+100 pu";
	measured_frequency_A "+60 Hz";
	measured_frequency_B "+60 Hz";
	measured_frequency_C "+60 Hz";
	measured_frequency "+60 Hz";
	service_status "IN_SERVICE";
	service_status_double "-1";
	previous_uptime "-1 min";
	current_uptime "-1 min";
	GFA_freq_low_trip "+59.5 Hz";
	GFA_freq_high_trip "+60.5 Hz";
	GFA_volt_low_trip "+0.8 pu";
	GFA_volt_high_trip "+1.2 pu";
	GFA_reconnect_time "+300 s";
	GFA_freq_disconnect_time "+0.2 s";
	GFA_volt_disconnect_time "+0.2 s";
	GFA_status "TRUE";
	topological_parent "node_14";
	// class.parent = powerflow.powerflow_object
	phases "AN";
	nominal_voltage "+2401.78 V";
}
object powerflow.node {
	name "node_15";
	groupid "nodevolts";
	latitude "35N23:4.56";
	longitude "118W59:58.26";
	guid "5BCBAEB1B1C325894340BE85D016E659";
	maximum_voltage_error "+0.00240178 V";
	voltage_C "+2401.78+120d V";
	frequency_measure_type "NONE";
	sfm_Tf "+0.01 s";
	pll_Kp "+10 pu";
	pll_Ki "+100 pu";
	measured_frequency_A "+60 Hz";
	measured_frequency_B "+60 Hz";
	measured_frequency_C "+60 Hz";
	measured_frequency "+60 Hz";
	service_status "IN_SERVICE";
	service_status_double "-1";
	previous_uptime "-1 min";
	current_uptime "-1 min";
	GFA_freq_low_trip "+59.5 Hz";
	GFA_freq_high_trip "+60.5 Hz";
	GFA_volt_low_trip "+0.8 pu";
	GFA_volt_high_trip "+1.2 pu";
	GFA_reconnect_time "+300 s";
	GFA_freq_disconnect_time "+0.2 s";
	GFA_volt_disconnect_time "+0.2 s";
	GFA_status "TRUE";
	// class.parent = powerflow.powerflow_object
	phases "CN";
	nominal_voltage "+2401.78 V";
}
object powerflow.node {
	name "node_18";
	groupid "nodevolts";
	latitude "35N23:15.18";
	longitude "118W59:58.26";
	guid "1558FEDAAA187F344C1606C542AF114A";
	maximum_voltage_error "+0.00240178 V";
	voltage_A "+2401.78+0d V";
	voltage_B "+2401.78-120d V";
	voltage_C "+2401.78+120d V";
	frequency_measure_type "NONE";
	sfm_Tf "+0.01 s";
	pll_Kp "+10 pu";
	pll_Ki "+100 pu";
	measured_frequency_A "+60 Hz";
	measured_frequency_B "+60 Hz";
	measured_frequency_C "+60 Hz";
	measured_frequency "+60 Hz";
	service_status "IN_SERVICE";
	service_status_double "-1";
	previous_uptime "-1 min";
	current_uptime "-1 min";
	GFA_freq_low_trip "+59.5 Hz";
	GFA_freq_high_trip "+60.5 Hz";
	GFA_volt_low_trip "+0.8 pu";
	GFA_volt_high_trip "+1.2 pu";
	GFA_reconnect_time "+300 s";
	GFA_freq_disconnect_time "+0.2 s";
	GFA_volt_disconnect_time "+0.2 s";
	GFA_status "TRUE";
	// class.parent = powerflow.powerflow_object
	phases "ABCN";
	nominal_voltage "+2401.78 V";
}
object powerflow.node {
	name "node_21";
	groupid "nodevolts";
	latitude "35N23:18.12";
	longitude "118W59:58.26";
	guid "377052399DD5BD7B7E759470644744AC";
	maximum_voltage_error "+0.00240178 V";
	voltage_A "+2401.78+0d V";
	voltage_B "+2401.78-120d V";
	voltage_C "+2401.78+120d V";
	frequency_measure_type "NONE";
	sfm_Tf "+0.01 s";
	pll_Kp "+10 pu";
	pll_Ki "+100 pu";
	measured_frequency_A "+60 Hz";
	measured_frequency_B "+60 Hz";
	measured_frequency_C "+60 Hz";
	measured_frequency "+60 Hz";
	service_status "IN_SERVICE";
	service_status_double "-1";
	previous_uptime "-1 min";
	current_uptime "-1 min";
	GFA_freq_low_trip "+59.5 Hz";
	GFA_freq_high_trip "+60.5 Hz";
	GFA_volt_low_trip "+0.8 pu";
	GFA_volt_high_trip "+1.2 pu";
	GFA_reconnect_time "+300 s";
	GFA_freq_disconnect_time "+0.2 s";
	GFA_volt_disconnect_time "+0.2 s";
	GFA_status "TRUE";
	// class.parent = powerflow.powerflow_object
	phases "ABCN";
	nominal_voltage "+2401.78 V";
}
object powerflow.node {
	name "node_23";
	groupid "nodevolts";
	latitude "35N23:20.58";
	longitude "118W59:58.26";
	guid "5B37C16D3701D7DE28F5B9EB21233A";
	maximum_voltage_error "+0.00240178 V";
	voltage_A "+2401.78+0d V";
	voltage_B "+2401.78-120d V";
	voltage_C "+2401.78+120d V";
	frequency_measure_type "NONE";
	sfm_Tf "+0.01 s";
	pll_Kp "+10 pu";
	pll_Ki "+100 pu";
	measured_frequency_A "+60 Hz";
	measured_frequency_B "+60 Hz";
	measured_frequency_C "+60 Hz";
	measured_frequency "+60 Hz";
	service_status "IN_SERVICE";
	service_status_double "-1";
	previous_uptime "-1 min";
	current_uptime "-1 min";
	GFA_freq_low_trip "+59.5 Hz";
	GFA_freq_high_trip "+60.5 Hz";
	GFA_volt_low_trip "+0.8 pu";
	GFA_volt_high_trip "+1.2 pu";
	GFA_reconnect_time "+300 s";
	GFA_freq_disconnect_time "+0.2 s";
	GFA_volt_disconnect_time "+0.2 s";
	GFA_status "TRUE";
	// class.parent = powerflow.powerflow_object
	phases "ABCN";
	nominal_voltage "+2401.78 V";
}
object powerflow.node {
	name "node_25";
	groupid "nodevolts";
	latitude "35N23:23.28";
	longitude "118W59:58.26";
	guid "5DE6F991010BAB543CF5012370D34BDE";
	maximum_voltage_error "+0.00240178 V";
	voltage_A "+2401.78+0d V";
	voltage_B "+2401.78-120d V";
	voltage_C "+2401.78+120d V";
	frequency_measure_type "NONE";
	sfm_Tf "+0.01 s";
	pll_Kp "+10 pu";
	pll_Ki "+100 pu";
	measured_frequency_A "+60 Hz";
	measured_frequency_B "+60 Hz";
	measured_frequency_C "+60 Hz";
	measured_frequency "+60 Hz";
	service_status "IN_SERVICE";
	service_status_double "-1";
	previous_uptime "-1 min";
	current_uptime "-1 min";
	GFA_freq_low_trip "+59.5 Hz";
	GFA_freq_high_trip "+60.5 Hz";
	GFA_volt_low_trip "+0.8 pu";
	GFA_volt_high_trip "+1.2 pu";
	GFA_reconnect_time "+300 s";
	GFA_freq_disconnect_time "+0.2 s";
	GFA_volt_disconnect_time "+0.2 s";
	GFA_status "TRUE";
	// class.parent = powerflow.powerflow_object
	phases "ABCN";
	nominal_voltage "+2401.78 V";
}
object powerflow.node {
	name "node_26";
	groupid "nodevolts";
	latitude "35N23:23.28";
	longitude "119W0:2.46";
	guid "3ED7684509717E18EF403165AC15B4C";
	maximum_voltage_error "+0.00240178 V";
	voltage_A "+2401.78+0d V";
	voltage_C "+2401.78+120d V";
	frequency_measure_type "NONE";
	sfm_Tf "+0.01 s";
	pll_Kp "+10 pu";
	pll_Ki "+100 pu";
	measured_frequency_A "+60 Hz";
	measured_frequency_B "+60 Hz";
	measured_frequency_C "+60 Hz";
	measured_frequency "+60 Hz";
	service_status "IN_SERVICE";
	service_status_double "-1";
	previous_uptime "-1 min";
	current_uptime "-1 min";
	GFA_freq_low_trip "+59.5 Hz";
	GFA_freq_high_trip "+60.5 Hz";
	GFA_volt_low_trip "+0.8 pu";
	GFA_volt_high_trip "+1.2 pu";
	GFA_reconnect_time "+300 s";
	GFA_freq_disconnect_time "+0.2 s";
	GFA_volt_disconnect_time "+0.2 s";
	GFA_status "TRUE";
	// class.parent = powerflow.powerflow_object
	phases "ACN";
	nominal_voltage "+2401.78 V";
}
object powerflow.node {
	name "node_27";
	groupid "nodevolts";
	latitude "35N23:23.28";
	longitude "119W0:5.82";
	guid "FD8AD92F0D245726D4E966B3F45AF3E";
	maximum_voltage_error "+0.00240178 V";
	voltage_A "+2401.78+0d V";
	voltage_C "+2401.78+120d V";
	frequency_measure_type "NONE";
	sfm_Tf "+0.01 s";
	pll_Kp "+10 pu";
	pll_Ki "+100 pu";
	measured_frequency_A "+60 Hz";
	measured_frequency_B "+60 Hz";
	measured_frequency_C "+60 Hz";
	measured_frequency "+60 Hz";
	service_status "IN_SERVICE";
	service_status_double "-1";
	previous_uptime "-1 min";
	current_uptime "-1 min";
	GFA_freq_low_trip "+59.5 Hz";
	GFA_freq_high_trip "+60.5 Hz";
	GFA_volt_low_trip "+0.8 pu";
	GFA_volt_high_trip "+1.2 pu";
	GFA_reconnect_time "+300 s";
	GFA_freq_disconnect_time "+0.2 s";
	GFA_volt_disconnect_time "+0.2 s";
	GFA_status "TRUE";
	// class.parent = powerflow.powerflow_object
	phases "ACN";
	nominal_voltage "+2401.78 V";
}
object powerflow.node {
	name "node_36";
	groupid "nodevolts";
	latitude "35N23:8.76";
	longitude "118W59:53.70";
	guid "7C882B1266D3F4051222D8DCE654914";
	maximum_voltage_error "+0.00240178 V";
	voltage_A "+2401.78+0d V";
	voltage_B "+2401.78-120d V";
	frequency_measure_type "NONE";
	sfm_Tf "+0.01 s";
	pll_Kp "+10 pu";
	pll_Ki "+100 pu";
	measured_frequency_A "+60 Hz";
	measured_frequency_B "+60 Hz";
	measured_frequency_C "+60 Hz";
	measured_frequency "+60 Hz";
	service_status "IN_SERVICE";
	service_status_double "-1";
	previous_uptime "-1 min";
	current_uptime "-1 min";
	GFA_freq_low_trip "+59.5 Hz";
	GFA_freq_high_trip "+60.5 Hz";
	GFA_volt_low_trip "+0.8 pu";
	GFA_volt_high_trip "+1.2 pu";
	GFA_reconnect_time "+300 s";
	GFA_freq_disconnect_time "+0.2 s";
	GFA_volt_disconnect_time "+0.2 s";
	GFA_status "TRUE";
	// class.parent = powerflow.powerflow_object
	phases "ABN";
	nominal_voltage "+2401.78 V";
}
object powerflow.node {
	name "node_40";
	groupid "nodevolts";
	latitude "35N23:17.64";
	longitude "118W59:53.70";
	guid "2F75DBEFD4680095A5975B82D229AE1";
	maximum_voltage_error "+0.00240178 V";
	voltage_A "+2401.78+0d V";
	voltage_B "+2401.78-120d V";
	voltage_C "+2401.78+120d V";
	frequency_measure_type "NONE";
	sfm_Tf "+0.01 s";
	pll_Kp "+10 pu";
	pll_Ki "+100 pu";
	measured_frequency_A "+60 Hz";
	measured_frequency_B "+60 Hz";
	measured_frequency_C "+60 Hz";
	measured_frequency "+60 Hz";
	service_status "IN_SERVICE";
	service_status_double "-1";
	previous_uptime "-1 min";
	current_uptime "-1 min";
	GFA_freq_low_trip "+59.5 Hz";
	GFA_freq_high_trip "+60.5 Hz";
	GFA_volt_low_trip "+0.8 pu";
	GFA_volt_high_trip "+1.2 pu";
	GFA_reconnect_time "+300 s";
	GFA_freq_disconnect_time "+0.2 s";
	GFA_volt_disconnect_time "+0.2 s";
	GFA_status "TRUE";
	// class.parent = powerflow.powerflow_object
	phases "ABCN";
	nominal_voltage "+2401.78 V";
}
object powerflow.node {
	name "node_44";
	groupid "nodevolts";
	latitude "35N23:22.08";
	longitude "118W59:53.70";
	guid "4DCED5337F13A352781641C15A8939CD";
	maximum_voltage_error "+0.00240178 V";
	voltage_A "+2401.78+0d V";
	voltage_B "+2401.78-120d V";
	voltage_C "+2401.78+120d V";
	frequency_measure_type "NONE";
	sfm_Tf "+0.01 s";
	pll_Kp "+10 pu";
	pll_Ki "+100 pu";
	measured_frequency_A "+60 Hz";
	measured_frequency_B "+60 Hz";
	measured_frequency_C "+60 Hz";
	measured_frequency "+60 Hz";
	service_status "IN_SERVICE";
	service_status_double "-1";
	previous_uptime "-1 min";
	current_uptime "-1 min";
	GFA_freq_low_trip "+59.5 Hz";
	GFA_freq_high_trip "+60.5 Hz";
	GFA_volt_low_trip "+0.8 pu";
	GFA_volt_high_trip "+1.2 pu";
	GFA_reconnect_time "+300 s";
	GFA_freq_disconnect_time "+0.2 s";
	GFA_volt_disconnect_time "+0.2 s";
	GFA_status "TRUE";
	// class.parent = powerflow.powerflow_object
	phases "ABCN";
	nominal_voltage "+2401.78 V";
}
object powerflow.node {
	name "node_54";
	groupid "nodevolts";
	latitude "35N23:7.02";
	longitude "118W59:49.44";
	guid "644DE1E7B85028A829A8DE09D46276C";
	maximum_voltage_error "+0.00240178 V";
	voltage_A "+2401.78+0d V";
	voltage_B "+2401.78-120d V";
	voltage_C "+2401.78+120d V";
	frequency_measure_type "NONE";
	sfm_Tf "+0.01 s";
	pll_Kp "+10 pu";
	pll_Ki "+100 pu";
	measured_frequency_A "+60 Hz";
	measured_frequency_B "+60 Hz";
	measured_frequency_C "+60 Hz";
	measured_frequency "+60 Hz";
	service_status "IN_SERVICE";
	service_status_double "-1";
	previous_uptime "-1 min";
	current_uptime "-1 min";
	GFA_freq_low_trip "+59.5 Hz";
	GFA_freq_high_trip "+60.5 Hz";
	GFA_volt_low_trip "+0.8 pu";
	GFA_volt_high_trip "+1.2 pu";
	GFA_reconnect_time "+300 s";
	GFA_freq_disconnect_time "+0.2 s";
	GFA_volt_disconnect_time "+0.2 s";
	GFA_status "TRUE";
	// class.parent = powerflow.powerflow_object
	phases "ABCN";
	nominal_voltage "+2401.78 V";
}
object powerflow.node {
	name "node_57";
	groupid "nodevolts";
	latitude "35N23:10.50";
	longitude "118W59:49.44";
	guid "723DA27DB429F0ED6E4A722620D56767";
	maximum_voltage_error "+0.00240178 V";
	voltage_A "+2401.78+0d V";
	voltage_B "+2401.78-120d V";
	voltage_C "+2401.78+120d V";
	frequency_measure_type "NONE";
	sfm_Tf "+0.01 s";
	pll_Kp "+10 pu";
	pll_Ki "+100 pu";
	measured_frequency_A "+60 Hz";
	measured_frequency_B "+60 Hz";
	measured_frequency_C "+60 Hz";
	measured_frequency "+60 Hz";
	service_status "IN_SERVICE";
	service_status_double "-1";
	previous_uptime "-1 min";
	current_uptime "-1 min";
	GFA_freq_low_trip "+59.5 Hz";
	GFA_freq_high_trip "+60.5 Hz";
	GFA_volt_low_trip "+0.8 pu";
	GFA_volt_high_trip "+1.2 pu";
	GFA_reconnect_time "+300 s";
	GFA_freq_disconnect_time "+0.2 s";
	GFA_volt_disconnect_time "+0.2 s";
	GFA_status "TRUE";
	// class.parent = powerflow.powerflow_object
	phases "ABCN";
	nominal_voltage "+2401.78 V";
}
object powerflow.node {
	name "node_61";
	groupid "nodevolts";
	latitude "35N23:6.96";
	longitude "118W59:34.32";
	guid "41326B1069D7465D699E7CE0D1755F85";
	maximum_voltage_error "+0.00240178 V";
	voltage_A "+2401.78+0d V";
	voltage_B "+2401.78-120d V";
	voltage_C "+2401.78+120d V";
	frequency_measure_type "NONE";
	sfm_Tf "+0.01 s";
	pll_Kp "+10 pu";
	pll_Ki "+100 pu";
	measured_frequency_A "+60 Hz";
	measured_frequency_B "+60 Hz";
	measured_frequency_C "+60 Hz";
	measured_frequency "+60 Hz";
	service_status "IN_SERVICE";
	service_status_double "-1";
	previous_uptime "-1 min";
	current_uptime "-1 min";
	GFA_freq_low_trip "+59.5 Hz";
	GFA_freq_high_trip "+60.5 Hz";
	GFA_volt_low_trip "+0.8 pu";
	GFA_volt_high_trip "+1.2 pu";
	GFA_reconnect_time "+300 s";
	GFA_freq_disconnect_time "+0.2 s";
	GFA_volt_disconnect_time "+0.2 s";
	GFA_status "TRUE";
	// class.parent = powerflow.powerflow_object
	phases "ABCN";
	nominal_voltage "+2401.78 V";
}
object powerflow.node {
	name "node_67";
	groupid "nodevolts";
	latitude "35N23:24.54";
	longitude "118W59:34.32";
	guid "6A5CCFF96994622831B7F2AF2D96A2C2";
	maximum_voltage_error "+0.00240178 V";
	voltage_A "+2401.78+0d V";
	voltage_B "+2401.78-120d V";
	voltage_C "+2401.78+120d V";
	frequency_measure_type "NONE";
	sfm_Tf "+0.01 s";
	pll_Kp "+10 pu";
	pll_Ki "+100 pu";
	measured_frequency_A "+60 Hz";
	measured_frequency_B "+60 Hz";
	measured_frequency_C "+60 Hz";
	measured_frequency "+60 Hz";
	service_status "IN_SERVICE";
	service_status_double "-1";
	previous_uptime "-1 min";
	current_uptime "-1 min";
	GFA_freq_low_trip "+59.5 Hz";
	GFA_freq_high_trip "+60.5 Hz";
	GFA_volt_low_trip "+0.8 pu";
	GFA_volt_high_trip "+1.2 pu";
	GFA_reconnect_time "+300 s";
	GFA_freq_disconnect_time "+0.2 s";
	GFA_volt_disconnect_time "+0.2 s";
	GFA_status "TRUE";
	// class.parent = powerflow.powerflow_object
	phases "ABCN";
	nominal_voltage "+2401.78 V";
}
object powerflow.node {
	name "node_72";
	groupid "nodevolts";
	latitude "35N23:21.84";
	longitude "118W59:34.32";
	guid "4C17641ADA8D18A3535DD5922BE9DC78";
	maximum_voltage_error "+0.00240178 V";
	voltage_A "+2401.78+0d V";
	voltage_B "+2401.78-120d V";
	voltage_C "+2401.78+120d V";
	frequency_measure_type "NONE";
	sfm_Tf "+0.01 s";
	pll_Kp "+10 pu";
	pll_Ki "+100 pu";
	measured_frequency_A "+60 Hz";
	measured_frequency_B "+60 Hz";
	measured_frequency_C "+60 Hz";
	measured_frequency "+60 Hz";
	service_status "IN_SERVICE";
	service_status_double "-1";
	previous_uptime "-1 min";
	current_uptime "-1 min";
	GFA_freq_low_trip "+59.5 Hz";
	GFA_freq_high_trip "+60.5 Hz";
	GFA_volt_low_trip "+0.8 pu";
	GFA_volt_high_trip "+1.2 pu";
	GFA_reconnect_time "+300 s";
	GFA_freq_disconnect_time "+0.2 s";
	GFA_volt_disconnect_time "+0.2 s";
	GFA_status "TRUE";
	// class.parent = powerflow.powerflow_object
	phases "ABCN";
	nominal_voltage "+2401.78 V";
}
object powerflow.node {
	name "node_78";
	groupid "nodevolts";
	latitude "35N23:18.48";
	longitude "118W59:28.50";
	guid "4485A0A3DBE11F36782B58947D3DFA27";
	maximum_voltage_error "+0.00240178 V";
	voltage_A "+2401.78+0d V";
	voltage_B "+2401.78-120d V";
	voltage_C "+2401.78+120d V";
	frequency_measure_type "NONE";
	sfm_Tf "+0.01 s";
	pll_Kp "+10 pu";
	pll_Ki "+100 pu";
	measured_frequency_A "+60 Hz";
	measured_frequency_B "+60 Hz";
	measured_frequency_C "+60 Hz";
	measured_frequency "+60 Hz";
	service_status "IN_SERVICE";
	service_status_double "-1";
	previous_uptime "-1 min";
	current_uptime "-1 min";
	GFA_freq_low_trip "+59.5 Hz";
	GFA_freq_high_trip "+60.5 Hz";
	GFA_volt_low_trip "+0.8 pu";
	GFA_volt_high_trip "+1.2 pu";
	GFA_reconnect_time "+300 s";
	GFA_freq_disconnect_time "+0.2 s";
	GFA_volt_disconnect_time "+0.2 s";
	GFA_status "TRUE";
	// class.parent = powerflow.powerflow_object
	phases "ABCN";
	nominal_voltage "+2401.78 V";
}
object powerflow.node {
	name "node_81";
	groupid "nodevolts";
	latitude "35N23:9.48";
	longitude "118W59:31.68";
	guid "47F2417F4BD322F93998897B58B892A6";
	maximum_voltage_error "+0.00240178 V";
	voltage_A "+2401.78+0d V";
	voltage_B "+2401.78-120d V";
	voltage_C "+2401.78+120d V";
	frequency_measure_type "NONE";
	sfm_Tf "+0.01 s";
	pll_Kp "+10 pu";
	pll_Ki "+100 pu";
	measured_frequency_A "+60 Hz";
	measured_frequency_B "+60 Hz";
	measured_frequency_C "+60 Hz";
	measured_frequency "+60 Hz";
	service_status "IN_SERVICE";
	service_status_double "-1";
	previous_uptime "-1 min";
	current_uptime "-1 min";
	GFA_freq_low_trip "+59.5 Hz";
	GFA_freq_high_trip "+60.5 Hz";
	GFA_volt_low_trip "+0.8 pu";
	GFA_volt_high_trip "+1.2 pu";
	GFA_reconnect_time "+300 s";
	GFA_freq_disconnect_time "+0.2 s";
	GFA_volt_disconnect_time "+0.2 s";
	GFA_status "TRUE";
	// class.parent = powerflow.powerflow_object
	phases "ABCN";
	nominal_voltage "+2401.78 V";
}
object powerflow.node {
	name "node_89";
	groupid "nodevolts";
	latitude "35N23:12.96";
	longitude "118W59:43.08";
	guid "5BC1962A80194C8A6DB27E10A9E9240C";
	maximum_voltage_error "+0.00240178 V";
	voltage_A "+2401.78+0d V";
	voltage_B "+2401.78-120d V";
	voltage_C "+2401.78+120d V";
	frequency_measure_type "NONE";
	sfm_Tf "+0.01 s";
	pll_Kp "+10 pu";
	pll_Ki "+100 pu";
	measured_frequency_A "+60 Hz";
	measured_frequency_B "+60 Hz";
	measured_frequency_C "+60 Hz";
	measured_frequency "+60 Hz";
	service_status "IN_SERVICE";
	service_status_double "-1";
	previous_uptime "-1 min";
	current_uptime "-1 min";
	GFA_freq_low_trip "+59.5 Hz";
	GFA_freq_high_trip "+60.5 Hz";
	GFA_volt_low_trip "+0.8 pu";
	GFA_volt_high_trip "+1.2 pu";
	GFA_reconnect_time "+300 s";
	GFA_freq_disconnect_time "+0.2 s";
	GFA_volt_disconnect_time "+0.2 s";
	GFA_status "TRUE";
	// class.parent = powerflow.powerflow_object
	phases "ABCN";
	nominal_voltage "+2401.78 V";
}
object powerflow.node {
	name "node_91";
	groupid "nodevolts";
	latitude "35N23:12.96";
	longitude "118W59:45.84";
	guid "209B5A53C248B3234B3B367CDF60610D";
	maximum_voltage_error "+0.00240178 V";
	voltage_A "+2401.78+0d V";
	voltage_B "+2401.78-120d V";
	voltage_C "+2401.78+120d V";
	frequency_measure_type "NONE";
	sfm_Tf "+0.01 s";
	pll_Kp "+10 pu";
	pll_Ki "+100 pu";
	measured_frequency_A "+60 Hz";
	measured_frequency_B "+60 Hz";
	measured_frequency_C "+60 Hz";
	measured_frequency "+60 Hz";
	service_status "IN_SERVICE";
	service_status_double "-1";
	previous_uptime "-1 min";
	current_uptime "-1 min";
	GFA_freq_low_trip "+59.5 Hz";
	GFA_freq_high_trip "+60.5 Hz";
	GFA_volt_low_trip "+0.8 pu";
	GFA_volt_high_trip "+1.2 pu";
	GFA_reconnect_time "+300 s";
	GFA_freq_disconnect_time "+0.2 s";
	GFA_volt_disconnect_time "+0.2 s";
	GFA_status "TRUE";
	// class.parent = powerflow.powerflow_object
	phases "ABCN";
	nominal_voltage "+2401.78 V";
}
object powerflow.node {
	name "node_93";
	groupid "nodevolts";
	latitude "35N23:12.96";
	longitude "118W59:48.54";
	guid "68AE9DB96B5BF7DD1CF0AA24C0E62C5F";
	maximum_voltage_error "+0.00240178 V";
	voltage_A "+2401.78+0d V";
	voltage_B "+2401.78-120d V";
	voltage_C "+2401.78+120d V";
	frequency_measure_type "NONE";
	sfm_Tf "+0.01 s";
	pll_Kp "+10 pu";
	pll_Ki "+100 pu";
	measured_frequency_A "+60 Hz";
	measured_frequency_B "+60 Hz";
	measured_frequency_C "+60 Hz";
	measured_frequency "+60 Hz";
	service_status "IN_SERVICE";
	service_status_double "-1";
	previous_uptime "-1 min";
	current_uptime "-1 min";
	GFA_freq_low_trip "+59.5 Hz";
	GFA_freq_high_trip "+60.5 Hz";
	GFA_volt_low_trip "+0.8 pu";
	GFA_volt_high_trip "+1.2 pu";
	GFA_reconnect_time "+300 s";
	GFA_freq_disconnect_time "+0.2 s";
	GFA_volt_disconnect_time "+0.2 s";
	GFA_status "TRUE";
	// class.parent = powerflow.powerflow_object
	phases "ABCN";
	nominal_voltage "+2401.78 V";
}
object powerflow.node {
	name "node_97";
	groupid "nodevolts";
	latitude "35N23:27.00";
	longitude "118W59:34.32";
	guid "58AD16FC4158F1225BA18A59C50B94E";
	maximum_voltage_error "+0.00240178 V";
	voltage_A "+2401.78+0d V";
	voltage_B "+2401.78-120d V";
	voltage_C "+2401.78+120d V";
	frequency_measure_type "NONE";
	sfm_Tf "+0.01 s";
	pll_Kp "+10 pu";
	pll_Ki "+100 pu";
	measured_frequency_A "+60 Hz";
	measured_frequency_B "+60 Hz";
	measured_frequency_C "+60 Hz";
	measured_frequency "+60 Hz";
	service_status "IN_SERVICE";
	service_status_double "-1";
	previous_uptime "-1 min";
	current_uptime "-1 min";
	GFA_freq_low_trip "+59.5 Hz";
	GFA_freq_high_trip "+60.5 Hz";
	GFA_volt_low_trip "+0.8 pu";
	GFA_volt_high_trip "+1.2 pu";
	GFA_reconnect_time "+300 s";
	GFA_freq_disconnect_time "+0.2 s";
	GFA_volt_disconnect_time "+0.2 s";
	GFA_status "TRUE";
	// class.parent = powerflow.powerflow_object
	phases "ABCN";
	nominal_voltage "+2401.78 V";
}
object powerflow.node {
	name "node_101";
	groupid "nodevolts";
	latitude "35N23:27.00";
	longitude "118W59:38.58";
	guid "445BF0A2423A84671183BC55C018893F";
	maximum_voltage_error "+0.00240178 V";
	voltage_A "+2401.78+0d V";
	voltage_B "+2401.78-120d V";
	voltage_C "+2401.78+120d V";
	frequency_measure_type "NONE";
	sfm_Tf "+0.01 s";
	pll_Kp "+10 pu";
	pll_Ki "+100 pu";
	measured_frequency_A "+60 Hz";
	measured_frequency_B "+60 Hz";
	measured_frequency_C "+60 Hz";
	measured_frequency "+60 Hz";
	service_status "IN_SERVICE";
	service_status_double "-1";
	previous_uptime "-1 min";
	current_uptime "-1 min";
	GFA_freq_low_trip "+59.5 Hz";
	GFA_freq_high_trip "+60.5 Hz";
	GFA_volt_low_trip "+0.8 pu";
	GFA_volt_high_trip "+1.2 pu";
	GFA_reconnect_time "+300 s";
	GFA_freq_disconnect_time "+0.2 s";
	GFA_volt_disconnect_time "+0.2 s";
	GFA_status "TRUE";
	// class.parent = powerflow.powerflow_object
	phases "ABCN";
	nominal_voltage "+2401.78 V";
}
object powerflow.node {
	name "node_105";
	groupid "nodevolts";
	latitude "35N23:29.70";
	longitude "118W59:38.58";
	guid "5962B3F64EBA6C6E78765FDEA2580B80";
	maximum_voltage_error "+0.00240178 V";
	voltage_A "+2401.78+0d V";
	voltage_B "+2401.78-120d V";
	voltage_C "+2401.78+120d V";
	frequency_measure_type "NONE";
	sfm_Tf "+0.01 s";
	pll_Kp "+10 pu";
	pll_Ki "+100 pu";
	measured_frequency_A "+60 Hz";
	measured_frequency_B "+60 Hz";
	measured_frequency_C "+60 Hz";
	measured_frequency "+60 Hz";
	service_status "IN_SERVICE";
	service_status_double "-1";
	previous_uptime "-1 min";
	current_uptime "-1 min";
	GFA_freq_low_trip "+59.5 Hz";
	GFA_freq_high_trip "+60.5 Hz";
	GFA_volt_low_trip "+0.8 pu";
	GFA_volt_high_trip "+1.2 pu";
	GFA_reconnect_time "+300 s";
	GFA_freq_disconnect_time "+0.2 s";
	GFA_volt_disconnect_time "+0.2 s";
	GFA_status "TRUE";
	// class.parent = powerflow.powerflow_object
	phases "ABCN";
	nominal_voltage "+2401.78 V";
}
object powerflow.node {
	name "node_108";
	groupid "nodevolts";
	latitude "35N23:32.94";
	longitude "118W59:38.58";
	guid "3D286937306866D314641C653B9CE741";
	maximum_voltage_error "+0.00240178 V";
	voltage_A "+2401.78+0d V";
	voltage_B "+2401.78-120d V";
	voltage_C "+2401.78+120d V";
	frequency_measure_type "NONE";
	sfm_Tf "+0.01 s";
	pll_Kp "+10 pu";
	pll_Ki "+100 pu";
	measured_frequency_A "+60 Hz";
	measured_frequency_B "+60 Hz";
	measured_frequency_C "+60 Hz";
	measured_frequency "+60 Hz";
	service_status "IN_SERVICE";
	service_status_double "-1";
	previous_uptime "-1 min";
	current_uptime "-1 min";
	GFA_freq_low_trip "+59.5 Hz";
	GFA_freq_high_trip "+60.5 Hz";
	GFA_volt_low_trip "+0.8 pu";
	GFA_volt_high_trip "+1.2 pu";
	GFA_reconnect_time "+300 s";
	GFA_freq_disconnect_time "+0.2 s";
	GFA_volt_disconnect_time "+0.2 s";
	GFA_status "TRUE";
	// class.parent = powerflow.powerflow_object
	phases "ABCN";
	nominal_voltage "+2401.78 V";
}
object powerflow.node {
	name "node_110";
	groupid "nodevolts";
	latitude "35N23:32.94";
	longitude "118W59:29.46";
	guid "47958913DE11D361217A9BA04313D60";
	maximum_voltage_error "+0.00240178 V";
	voltage_A "+2401.78+0d V";
	frequency_measure_type "NONE";
	sfm_Tf "+0.01 s";
	pll_Kp "+10 pu";
	pll_Ki "+100 pu";
	measured_frequency_A "+60 Hz";
	measured_frequency_B "+60 Hz";
	measured_frequency_C "+60 Hz";
	measured_frequency "+60 Hz";
	service_status "IN_SERVICE";
	service_status_double "-1";
	previous_uptime "-1 min";
	current_uptime "-1 min";
	GFA_freq_low_trip "+59.5 Hz";
	GFA_freq_high_trip "+60.5 Hz";
	GFA_volt_low_trip "+0.8 pu";
	GFA_volt_high_trip "+1.2 pu";
	GFA_reconnect_time "+300 s";
	GFA_freq_disconnect_time "+0.2 s";
	GFA_volt_disconnect_time "+0.2 s";
	GFA_status "TRUE";
	// class.parent = powerflow.powerflow_object
	phases "AN";
	nominal_voltage "+2401.78 V";
}
object powerflow.node {
	name "node_135";
	groupid "nodevolts";
	latitude "35N23:15.18";
	longitude "118W59:58.26";
	guid "5DA90B736813635662452E24AB2E522F";
	maximum_voltage_error "+0.00240178 V";
	voltage_A "+2401.78+0d V";
	voltage_B "+2401.78-120d V";
	voltage_C "+2401.78+120d V";
	frequency_measure_type "NONE";
	sfm_Tf "+0.01 s";
	pll_Kp "+10 pu";
	pll_Ki "+100 pu";
	measured_frequency_A "+60 Hz";
	measured_frequency_B "+60 Hz";
	measured_frequency_C "+60 Hz";
	measured_frequency "+60 Hz";
	service_status "IN_SERVICE";
	service_status_double "-1";
	previous_uptime "-1 min";
	current_uptime "-1 min";
	GFA_freq_low_trip "+59.5 Hz";
	GFA_freq_high_trip "+60.5 Hz";
	GFA_volt_low_trip "+0.8 pu";
	GFA_volt_high_trip "+1.2 pu";
	GFA_reconnect_time "+300 s";
	GFA_freq_disconnect_time "+0.2 s";
	GFA_volt_disconnect_time "+0.2 s";
	GFA_status "TRUE";
	// class.parent = powerflow.powerflow_object
	phases "ABCN";
	nominal_voltage "+2401.78 V";
}
object powerflow.node {
	name "node_149";
	groupid "nodevolts";
	latitude "35N23:9.84";
	longitude "119W0:11.34";
	guid "681141AAC39C8D3C57F15F3205FD63DA";
	maximum_voltage_error "+0.00240178 V";
	voltage_A "+2401.78+0d V";
	voltage_B "+2401.78-120d V";
	voltage_C "+2401.78+120d V";
	frequency_measure_type "NONE";
	sfm_Tf "+0.01 s";
	pll_Kp "+10 pu";
	pll_Ki "+100 pu";
	measured_frequency_A "+60 Hz";
	measured_frequency_B "+60 Hz";
	measured_frequency_C "+60 Hz";
	measured_frequency "+60 Hz";
	service_status "IN_SERVICE";
	service_status_double "-1";
	previous_uptime "-1 min";
	current_uptime "-1 min";
	GFA_freq_low_trip "+59.5 Hz";
	GFA_freq_high_trip "+60.5 Hz";
	GFA_volt_low_trip "+0.8 pu";
	GFA_volt_high_trip "+1.2 pu";
	GFA_reconnect_time "+300 s";
	GFA_freq_disconnect_time "+0.2 s";
	GFA_volt_disconnect_time "+0.2 s";
	GFA_status "TRUE";
	// class.parent = powerflow.powerflow_object
	phases "ABCN";
	nominal_voltage "+2401.78 V";
}
object powerflow.node {
	name "node_150";
	groupid "nodevolts";
	latitude "35N23:9.84";
	longitude "119W0:11.34";
	guid "58281CEA96F040F3BF20924DFB2C800";
	bustype "SWING";
	maximum_voltage_error "+0.00240178 V";
	voltage_A "+2401.78+0j V";
	voltage_B "-1200.89-2080j V";
	voltage_C "-1200.89+2080j V";
	frequency_measure_type "NONE";
	sfm_Tf "+0.01 s";
	pll_Kp "+10 pu";
	pll_Ki "+100 pu";
	measured_frequency_A "+60 Hz";
	measured_frequency_B "+60 Hz";
	measured_frequency_C "+60 Hz";
	measured_frequency "+60 Hz";
	service_status "IN_SERVICE";
	service_status_double "-1";
	previous_uptime "-1 min";
	current_uptime "-1 min";
	GFA_freq_low_trip "+59.5 Hz";
	GFA_freq_high_trip "+60.5 Hz";
	GFA_volt_low_trip "+0.8 pu";
	GFA_volt_high_trip "+1.2 pu";
	GFA_reconnect_time "+300 s";
	GFA_freq_disconnect_time "+0.2 s";
	GFA_volt_disconnect_time "+0.2 s";
	GFA_status "TRUE";
	// class.parent = powerflow.powerflow_object
	phases "ABCN";
	nominal_voltage "+2401.78 V";
}
object powerflow.node {
	name "node_151";
	groupid "nodevolts";
	latitude "35N23:24.54";
	longitude "118W59:38.58";
	guid "748DC081516F967B6761B65E36C574A7";
	maximum_voltage_error "+0.00240178 V";
	voltage_A "+2401.78+0d V";
	voltage_B "+2401.78-120d V";
	voltage_C "+2401.78+120d V";
	frequency_measure_type "NONE";
	sfm_Tf "+0.01 s";
	pll_Kp "+10 pu";
	pll_Ki "+100 pu";
	measured_frequency_A "+60 Hz";
	measured_frequency_B "+60 Hz";
	measured_frequency_C "+60 Hz";
	measured_frequency "+60 Hz";
	service_status "IN_SERVICE";
	service_status_double "-1";
	previous_uptime "-1 min";
	current_uptime "-1 min";
	GFA_freq_low_trip "+59.5 Hz";
	GFA_freq_high_trip "+60.5 Hz";
	GFA_volt_low_trip "+0.8 pu";
	GFA_volt_high_trip "+1.2 pu";
	GFA_reconnect_time "+300 s";
	GFA_freq_disconnect_time "+0.2 s";
	GFA_volt_disconnect_time "+0.2 s";
	GFA_status "TRUE";
	// class.parent = powerflow.powerflow_object
	phases "ABCN";
	nominal_voltage "+2401.78 V";
}
object powerflow.node {
	name "node_152";
	groupid "nodevolts";
	latitude "35N23:7.02";
	longitude "118W59:58.26";
	guid "344B4DF5523DBFDE30B1347520B00F7D";
	maximum_voltage_error "+0.00240178 V";
	voltage_A "+2401.78+0d V";
	voltage_B "+2401.78-120d V";
	voltage_C "+2401.78+120d V";
	frequency_measure_type "NONE";
	sfm_Tf "+0.01 s";
	pll_Kp "+10 pu";
	pll_Ki "+100 pu";
	measured_frequency_A "+60 Hz";
	measured_frequency_B "+60 Hz";
	measured_frequency_C "+60 Hz";
	measured_frequency "+60 Hz";
	service_status "IN_SERVICE";
	service_status_double "-1";
	previous_uptime "-1 min";
	current_uptime "-1 min";
	GFA_freq_low_trip "+59.5 Hz";
	GFA_freq_high_trip "+60.5 Hz";
	GFA_volt_low_trip "+0.8 pu";
	GFA_volt_high_trip "+1.2 pu";
	GFA_reconnect_time "+300 s";
	GFA_freq_disconnect_time "+0.2 s";
	GFA_volt_disconnect_time "+0.2 s";
	GFA_status "TRUE";
	// class.parent = powerflow.powerflow_object
	phases "ABCN";
	nominal_voltage "+2401.78 V";
}
object powerflow.node {
	name "node_160";
	groupid "nodevolts";
	latitude "35N23:24.54";
	longitude "118W59:34.32";
	guid "1471CD59B92EC593212F183BF1FAE5EF";
	maximum_voltage_error "+0.00240178 V";
	voltage_A "+2401.78+0d V";
	voltage_B "+2401.78-120d V";
	voltage_C "+2401.78+120d V";
	frequency_measure_type "NONE";
	sfm_Tf "+0.01 s";
	pll_Kp "+10 pu";
	pll_Ki "+100 pu";
	measured_frequency_A "+60 Hz";
	measured_frequency_B "+60 Hz";
	measured_frequency_C "+60 Hz";
	measured_frequency "+60 Hz";
	service_status "IN_SERVICE";
	service_status_double "-1";
	previous_uptime "-1 min";
	current_uptime "-1 min";
	GFA_freq_low_trip "+59.5 Hz";
	GFA_freq_high_trip "+60.5 Hz";
	GFA_volt_low_trip "+0.8 pu";
	GFA_volt_high_trip "+1.2 pu";
	GFA_reconnect_time "+300 s";
	GFA_freq_disconnect_time "+0.2 s";
	GFA_volt_disconnect_time "+0.2 s";
	GFA_status "TRUE";
	// class.parent = powerflow.powerflow_object
	phases "ABCN";
	nominal_voltage "+2401.78 V";
}
object powerflow.node {
	name "node_197";
	groupid "nodevolts";
	latitude "35N23:27.00";
	longitude "118W59:34.32";
	guid "666B6D7C754A8EC62A4266F71E85517";
	maximum_voltage_error "+0.00240178 V";
	voltage_A "+2401.78+0d V";
	voltage_B "+2401.78-120d V";
	voltage_C "+2401.78+120d V";
	frequency_measure_type "NONE";
	sfm_Tf "+0.01 s";
	pll_Kp "+10 pu";
	pll_Ki "+100 pu";
	measured_frequency_A "+60 Hz";
	measured_frequency_B "+60 Hz";
	measured_frequency_C "+60 Hz";
	measured_frequency "+60 Hz";
	service_status "IN_SERVICE";
	service_status_double "-1";
	previous_uptime "-1 min";
	current_uptime "-1 min";
	GFA_freq_low_trip "+59.5 Hz";
	GFA_freq_high_trip "+60.5 Hz";
	GFA_volt_low_trip "+0.8 pu";
	GFA_volt_high_trip "+1.2 pu";
	GFA_reconnect_time "+300 s";
	GFA_freq_disconnect_time "+0.2 s";
	GFA_volt_disconnect_time "+0.2 s";
	GFA_status "TRUE";
	// class.parent = powerflow.powerflow_object
	phases "ABCN";
	nominal_voltage "+2401.78 V";
}
object powerflow.node {
	name "node_250";
	groupid "nodevolts";
	latitude "35N23:28.26";
	longitude "118W59:51.60";
	guid "641EE539878F0DA5EECAA6BC8F53DD6";
	maximum_voltage_error "+0.00240178 V";
	voltage_A "+2401.78+0d V";
	voltage_B "+2401.78-120d V";
	voltage_C "+2401.78+120d V";
	frequency_measure_type "NONE";
	sfm_Tf "+0.01 s";
	pll_Kp "+10 pu";
	pll_Ki "+100 pu";
	measured_frequency_A "+60 Hz";
	measured_frequency_B "+60 Hz";
	measured_frequency_C "+60 Hz";
	measured_frequency "+60 Hz";
	service_status "IN_SERVICE";
	service_status_double "-1";
	previous_uptime "-1 min";
	current_uptime "-1 min";
	GFA_freq_low_trip "+59.5 Hz";
	GFA_freq_high_trip "+60.5 Hz";
	GFA_volt_low_trip "+0.8 pu";
	GFA_volt_high_trip "+1.2 pu";
	GFA_reconnect_time "+300 s";
	GFA_freq_disconnect_time "+0.2 s";
	GFA_volt_disconnect_time "+0.2 s";
	GFA_status "TRUE";
	// class.parent = powerflow.powerflow_object
	phases "ABCN";
	nominal_voltage "+2401.78 V";
}
object powerflow.node {
	name "node_300";
	groupid "nodevolts";
	latitude "35N23:24.54";
	longitude "118W59:38.58";
	guid "63FF32BB79DB5E15525486F80B39AFD";
	maximum_voltage_error "+0.00240178 V";
	voltage_A "+2401.78+0d V";
	voltage_B "+2401.78-120d V";
	voltage_C "+2401.78+120d V";
	frequency_measure_type "NONE";
	sfm_Tf "+0.01 s";
	pll_Kp "+10 pu";
	pll_Ki "+100 pu";
	measured_frequency_A "+60 Hz";
	measured_frequency_B "+60 Hz";
	measured_frequency_C "+60 Hz";
	measured_frequency "+60 Hz";
	service_status "IN_SERVICE";
	service_status_double "-1";
	previous_uptime "-1 min";
	current_uptime "-1 min";
	GFA_freq_low_trip "+59.5 Hz";
	GFA_freq_high_trip "+60.5 Hz";
	GFA_volt_low_trip "+0.8 pu";
	GFA_volt_high_trip "+1.2 pu";
	GFA_reconnect_time "+300 s";
	GFA_freq_disconnect_time "+0.2 s";
	GFA_volt_disconnect_time "+0.2 s";
	GFA_status "TRUE";
	// class.parent = powerflow.powerflow_object
	phases "ABCN";
	nominal_voltage "+2401.78 V";
}
object powerflow.node {
	name "node_450";
	groupid "nodevolts";
	latitude "35N23:27.00";
	longitude "118W59:11.04";
	guid "586732200C2E23131253BCF3547B6FB9";
	maximum_voltage_error "+0.00240178 V";
	voltage_A "+2401.78+0d V";
	voltage_B "+2401.78-120d V";
	voltage_C "+2401.78+120d V";
	frequency_measure_type "NONE";
	sfm_Tf "+0.01 s";
	pll_Kp "+10 pu";
	pll_Ki "+100 pu";
	measured_frequency_A "+60 Hz";
	measured_frequency_B "+60 Hz";
	measured_frequency_C "+60 Hz";
	measured_frequency "+60 Hz";
	service_status "IN_SERVICE";
	service_status_double "-1";
	previous_uptime "-1 min";
	current_uptime "-1 min";
	GFA_freq_low_trip "+59.5 Hz";
	GFA_freq_high_trip "+60.5 Hz";
	GFA_volt_low_trip "+0.8 pu";
	GFA_volt_high_trip "+1.2 pu";
	GFA_reconnect_time "+300 s";
	GFA_freq_disconnect_time "+0.2 s";
	GFA_volt_disconnect_time "+0.2 s";
	GFA_status "TRUE";
	// class.parent = powerflow.powerflow_object
	phases "ABCN";
	nominal_voltage "+2401.78 V";
}
object powerflow.node {
	name "node_610";
	groupid "nodevolts";
	latitude "35N23:6.96";
	longitude "118W59:34.32";
	guid "61B21172C34E138155273E93B997025A";
	maximum_voltage_error "+0.00240178 V";
	voltage_A "+2401.78+0d V";
	voltage_B "+2401.78-120d V";
	voltage_C "+2401.78+120d V";
	frequency_measure_type "NONE";
	sfm_Tf "+0.01 s";
	pll_Kp "+10 pu";
	pll_Ki "+100 pu";
	measured_frequency_A "+60 Hz";
	measured_frequency_B "+60 Hz";
	measured_frequency_C "+60 Hz";
	measured_frequency "+60 Hz";
	service_status "IN_SERVICE";
	service_status_double "-1";
	previous_uptime "-1 min";
	current_uptime "-1 min";
	GFA_freq_low_trip "+59.5 Hz";
	GFA_freq_high_trip "+60.5 Hz";
	GFA_volt_low_trip "+0.8 pu";
	GFA_volt_high_trip "+1.2 pu";
	GFA_reconnect_time "+300 s";
	GFA_freq_disconnect_time "+0.2 s";
	GFA_volt_disconnect_time "+0.2 s";
	GFA_status "TRUE";
	// class.parent = powerflow.powerflow_object
	phases "ABCN";
	nominal_voltage "+2401.78 V";
}
object powerflow.node {
	name "node_901";
	groupid "nodevolts";
	latitude "35N23:9.24";
	longitude "119W0:1.86";
	guid "670CFECC2BFA44392EAADBFEEE2C6A48";
	maximum_voltage_error "+0.00240178 V";
	voltage_A "+2401.78+0d V";
	frequency_measure_type "NONE";
	sfm_Tf "+0.01 s";
	pll_Kp "+10 pu";
	pll_Ki "+100 pu";
	measured_frequency_A "+60 Hz";
	measured_frequency_B "+60 Hz";
	measured_frequency_C "+60 Hz";
	measured_frequency "+60 Hz";
	service_status "IN_SERVICE";
	service_status_double "-1";
	previous_uptime "-1 min";
	current_uptime "-1 min";
	GFA_freq_low_trip "+59.5 Hz";
	GFA_freq_high_trip "+60.5 Hz";
	GFA_volt_low_trip "+0.8 pu";
	GFA_volt_high_trip "+1.2 pu";
	GFA_reconnect_time "+300 s";
	GFA_freq_disconnect_time "+0.2 s";
	GFA_volt_disconnect_time "+0.2 s";
	GFA_status "TRUE";
	// class.parent = powerflow.powerflow_object
	phases "AN";
	nominal_voltage "+2401.78 V";
}
object powerflow.node {
	name "node_2501";
	groupid "nodevolts";
	latitude "35N23:23.28";
	longitude "118W59:58.26";
	guid "53A41F9CE084A4334B99338005BFA7B1";
	maximum_voltage_error "+0.00240178 V";
	voltage_A "+2401.78+0d V";
	voltage_C "+2401.78+120d V";
	frequency_measure_type "NONE";
	sfm_Tf "+0.01 s";
	pll_Kp "+10 pu";
	pll_Ki "+100 pu";
	measured_frequency_A "+60 Hz";
	measured_frequency_B "+60 Hz";
	measured_frequency_C "+60 Hz";
	measured_frequency "+60 Hz";
	service_status "IN_SERVICE";
	service_status_double "-1";
	previous_uptime "-1 min";
	current_uptime "-1 min";
	GFA_freq_low_trip "+59.5 Hz";
	GFA_freq_high_trip "+60.5 Hz";
	GFA_volt_low_trip "+0.8 pu";
	GFA_volt_high_trip "+1.2 pu";
	GFA_reconnect_time "+300 s";
	GFA_freq_disconnect_time "+0.2 s";
	GFA_volt_disconnect_time "+0.2 s";
	GFA_status "TRUE";
	// class.parent = powerflow.powerflow_object
	phases "ACN";
	nominal_voltage "+2401.78 V";
}
object powerflow.node {
	name "node_6101";
	groupid "nodevolts";
	latitude "35N23:6.96";
	longitude "118W59:34.32";
	guid "3BFC746ECDD110C23C21459AD2271054";
	maximum_voltage_error "+0.00240178 V";
	voltage_A "+2401.78+0d V";
	voltage_B "+2401.78-120d V";
	voltage_C "+2401.78+120d V";
	frequency_measure_type "NONE";
	sfm_Tf "+0.01 s";
	pll_Kp "+10 pu";
	pll_Ki "+100 pu";
	measured_frequency_A "+60 Hz";
	measured_frequency_B "+60 Hz";
	measured_frequency_C "+60 Hz";
	measured_frequency "+60 Hz";
	service_status "IN_SERVICE";
	service_status_double "-1";
	previous_uptime "-1 min";
	current_uptime "-1 min";
	GFA_freq_low_trip "+59.5 Hz";
	GFA_freq_high_trip "+60.5 Hz";
	GFA_volt_low_trip "+0.8 pu";
	GFA_volt_high_trip "+1.2 pu";
	GFA_reconnect_time "+300 s";
	GFA_freq_disconnect_time "+0.2 s";
	GFA_volt_disconnect_time "+0.2 s";
	GFA_status "TRUE";
	// class.parent = powerflow.powerflow_object
	phases "ABCN";
	nominal_voltage "+2401.78 V";
}
object powerflow.node {
	name "node_15001";
	groupid "nodevolts";
	latitude "35N23:9.84";
	longitude "119W0:11.34";
	guid "52450A27C3600CAE9C4E821B07DD284";
	maximum_voltage_error "+0.00240178 V";
	voltage_A "+2401.78+0d V";
	voltage_B "+2401.78-120d V";
	voltage_C "+2401.78+120d V";
	frequency_measure_type "NONE";
	sfm_Tf "+0.01 s";
	pll_Kp "+10 pu";
	pll_Ki "+100 pu";
	measured_frequency_A "+60 Hz";
	measured_frequency_B "+60 Hz";
	measured_frequency_C "+60 Hz";
	measured_frequency "+60 Hz";
	service_status "IN_SERVICE";
	service_status_double "-1";
	previous_uptime "-1 min";
	current_uptime "-1 min";
	GFA_freq_low_trip "+59.5 Hz";
	GFA_freq_high_trip "+60.5 Hz";
	GFA_volt_low_trip "+0.8 pu";
	GFA_volt_high_trip "+1.2 pu";
	GFA_reconnect_time "+300 s";
	GFA_freq_disconnect_time "+0.2 s";
	GFA_volt_disconnect_time "+0.2 s";
	GFA_status "TRUE";
	// class.parent = powerflow.powerflow_object
	phases "ABCN";
	nominal_voltage "+2401.78 V";
}
object powerflow.node {
	name "node_16001";
	groupid "nodevolts";
	latitude "35N23:8.46";
	longitude "118W59:40.74";
	guid "308423F71173A287752F8379285E1311";
	maximum_voltage_error "+0.00240178 V";
	voltage_A "+2401.78+0d V";
	voltage_B "+2401.78-120d V";
	voltage_C "+2401.78+120d V";
	frequency_measure_type "NONE";
	sfm_Tf "+0.01 s";
	pll_Kp "+10 pu";
	pll_Ki "+100 pu";
	measured_frequency_A "+60 Hz";
	measured_frequency_B "+60 Hz";
	measured_frequency_C "+60 Hz";
	measured_frequency "+60 Hz";
	service_status "IN_SERVICE";
	service_status_double "-1";
	previous_uptime "-1 min";
	current_uptime "-1 min";
	GFA_freq_low_trip "+59.5 Hz";
	GFA_freq_high_trip "+60.5 Hz";
	GFA_volt_low_trip "+0.8 pu";
	GFA_volt_high_trip "+1.2 pu";
	GFA_reconnect_time "+300 s";
	GFA_freq_disconnect_time "+0.2 s";
	GFA_volt_disconnect_time "+0.2 s";
	GFA_status "TRUE";
	// class.parent = powerflow.powerflow_object
	phases "ABCN";
	nominal_voltage "+2401.78 V";
}
object powerflow.load {
	name "load_1";
	groupid "nodevolts";
	latitude "35N23:7.02";
	longitude "119W0:7.92";
	guid "71393DB18057EFEF7FAA475BF4D87856";
	constant_power_A "+40000+20000j VA";
	constant_power_A_real "+40000 W";
	constant_power_A_reac "+20000 VAr";
	// class.parent = powerflow.node
	maximum_voltage_error "+0.00240178 V";
	voltage_A "+2401.78+0d V";
	voltage_B "+2401.78-120d V";
	voltage_C "+2401.78+120d V";
	frequency_measure_type "NONE";
	sfm_Tf "+0.01 s";
	pll_Kp "+10 pu";
	pll_Ki "+100 pu";
	measured_frequency_A "+60 Hz";
	measured_frequency_B "+60 Hz";
	measured_frequency_C "+60 Hz";
	measured_frequency "+60 Hz";
	service_status "IN_SERVICE";
	service_status_double "-1";
	previous_uptime "-1 min";
	current_uptime "-1 min";
	GFA_freq_low_trip "+59.5 Hz";
	GFA_freq_high_trip "+60.5 Hz";
	GFA_volt_low_trip "+0.8 pu";
	GFA_volt_high_trip "+1.2 pu";
	GFA_reconnect_time "+300 s";
	GFA_freq_disconnect_time "+0.2 s";
	GFA_volt_disconnect_time "+0.2 s";
	GFA_status "TRUE";
	// class.parent = powerflow.powerflow_object
	phases "ABCN";
	nominal_voltage "+2401.78 V";
}
object powerflow.load {
	name "load_2";
	groupid "nodevolts";
	latitude "35N23:8.76";
	longitude "119W0:7.92";
	guid "3155D9E533D9D6784DFAE8AC76306DFB";
	constant_power_B "+20000+10000j VA";
	constant_power_B_real "+20000 W";
	constant_power_B_reac "+10000 VAr";
	// class.parent = powerflow.node
	maximum_voltage_error "+0.00240178 V";
	voltage_B "+2401.78-120d V";
	frequency_measure_type "NONE";
	sfm_Tf "+0.01 s";
	pll_Kp "+10 pu";
	pll_Ki "+100 pu";
	measured_frequency_A "+60 Hz";
	measured_frequency_B "+60 Hz";
	measured_frequency_C "+60 Hz";
	measured_frequency "+60 Hz";
	service_status "IN_SERVICE";
	service_status_double "-1";
	previous_uptime "-1 min";
	current_uptime "-1 min";
	GFA_freq_low_trip "+59.5 Hz";
	GFA_freq_high_trip "+60.5 Hz";
	GFA_volt_low_trip "+0.8 pu";
	GFA_volt_high_trip "+1.2 pu";
	GFA_reconnect_time "+300 s";
	GFA_freq_disconnect_time "+0.2 s";
	GFA_volt_disconnect_time "+0.2 s";
	GFA_status "TRUE";
	// class.parent = powerflow.powerflow_object
	phases "BN";
	nominal_voltage "+2401.78 V";
}
object powerflow.load {
	name "load_4";
	groupid "nodevolts";
	latitude "35N23:2.58";
	longitude "119W0:7.92";
	guid "6834034E15DAFE544C683DE2B2F707F7";
	constant_power_C "+40000+20000j VA";
	constant_power_C_real "+40000 W";
	constant_power_C_reac "+20000 VAr";
	// class.parent = powerflow.node
	maximum_voltage_error "+0.00240178 V";
	voltage_C "+2401.78+120d V";
	frequency_measure_type "NONE";
	sfm_Tf "+0.01 s";
	pll_Kp "+10 pu";
	pll_Ki "+100 pu";
	measured_frequency_A "+60 Hz";
	measured_frequency_B "+60 Hz";
	measured_frequency_C "+60 Hz";
...